# File generated by Flopy version 3.3.5 on 05/04/2022 at 11:23:05.
BEGIN options
  XT3D_OFF
END options

BEGIN griddata
  alh
    CONSTANT       1.00000000
  ath1
    CONSTANT       0.10000000
  ath2
    CONSTANT       0.10000000
END griddata

