# File generated by Flopy version 3.3.5 on 05/04/2022 at 11:23:05.
BEGIN options
  SAVE_FLOWS
END options

BEGIN packages
  DIS6  gwt.dis  dis
  FMI6  gwt.fmi  fmi
  IC6  gwt.ic  ic
  ADV6  gwt.adv  adv
  MST6  gwt.mst  mst
  DSP6  gwt.dsp  dsp
  SSM6  gwt.ssm  ssm
  OC6  gwt.oc  oc
END packages

