# File generated by Flopy version 3.3.5 on 05/04/2022 at 11:23:05.
BEGIN options
END options

BEGIN sources
  WEL_0  AUX  CONCENTRATION
  GHB_0  AUX  CONCENTRATION
END sources

