# File generated by Flopy version 3.3.5 on 05/04/2022 at 11:23:05.
BEGIN options
END options

BEGIN dimensions
  NLAY  1
  NROW  1
  NCOL  5
END dimensions

BEGIN griddata
  delr
    CONSTANT       1.00000000
  delc
    CONSTANT       1.00000000
  top
    CONSTANT       1.00000000
  botm
    CONSTANT       0.00000000
  idomain
    INTERNAL  FACTOR  1
    1  1  0  1  1
END griddata

