# File generated by Flopy version 3.3.5 on 05/04/2022 at 11:23:05.
BEGIN options
  BUDGET  FILEOUT  gwt.cbc
  CONCENTRATION  FILEOUT  gwt.ucn
  CONCENTRATION  PRINT_FORMAT  COLUMNS  10  WIDTH  15  DIGITS  6  GENERAL
END options

BEGIN period  1
  SAVE  CONCENTRATION  ALL
  PRINT  BUDGET  LAST
  PRINT  CONCENTRATION  LAST
END period  1

