# File generated by Flopy version 3.3.5 on 05/04/2022 at 11:23:05.
BEGIN options
  FLOW_IMBALANCE_CORRECTION
END options

BEGIN packagedata
  gwfhead  FILEIN  gwf.hds
  gwfbudget  FILEIN  gwf.bud
END packagedata

