# File generated by Flopy version 3.3.5 on 05/04/2022 at 11:23:05.
BEGIN options
END options

BEGIN nonlinear
  OUTER_DVCLOSE  1.00000000E-04
  OUTER_MAXIMUM  100
END nonlinear

BEGIN linear
  INNER_MAXIMUM  100
  INNER_DVCLOSE  1.00000000E-04
  LINEAR_ACCELERATION  bicgstab
END linear

