# File generated by Flopy version 3.3.5 on 05/04/2022 at 11:23:05.
BEGIN options
  CONTINUE
  MEMORY_PRINT_OPTION  all
END options

BEGIN timing
  TDIS6  sim.tdis
END timing

BEGIN models
  gwt6  gwt.nam  gwt
END models

BEGIN exchanges
END exchanges

BEGIN solutiongroup  1
  ims6  gwt.ims  gwt
END solutiongroup  1

