begin options

end options

begin period 1 cts 1 efficiency 0.000
wel wel_0 out 1 1 2
wel wel_0 in 1 1 4
end period 2 cts 1

begin period 2 cts 1 efficiency 0.500
wel wel_0 out 1 1 2
wel wel_0 in 1 1 4
end period 3 cts 1

begin period 3 cts 1 efficiency 1.000
wel wel_0 out 1 1 2
wel wel_0 in 1 1 4
end period 4 cts 1

