# File generated by Flopy version 3.3.5 on 05/04/2022 at 11:23:05.
BEGIN options
END options

BEGIN dimensions
  NPER  3
END dimensions

BEGIN perioddata
   10000.00000000  1       1.00000000
   10000.00000000  1       1.00000000
   10000.00000000  1       1.00000000
END perioddata

