# File generated by Flopy version 3.3.5 on 05/04/2022 at 11:23:05.
BEGIN options
END options

BEGIN dimensions
  NLAY  1
  NROW  1
  NCOL  5
END dimensions

BEGIN griddata
  delr
    OPEN/CLOSE  'gwf.dis_delr.txt'  FACTOR  1.0
  delc
    OPEN/CLOSE  'gwf.dis_delc.txt'  FACTOR  1.0
  top
    OPEN/CLOSE  'gwf.dis_top.txt'  FACTOR  1.0
  botm
    OPEN/CLOSE  'gwf.dis_botm.txt'  FACTOR  1.0
  idomain
    OPEN/CLOSE  'gwf.dis_idomain.txt'  FACTOR  1
END griddata

