# File generated by Flopy version 3.3.5 on 05/04/2022 at 11:23:05.
BEGIN options
  BUDGET  FILEOUT  gwf.bud
  HEAD  FILEOUT  gwf.hds
  HEAD  PRINT_FORMAT  COLUMNS  10  WIDTH  15  DIGITS  6  GENERAL
END options

BEGIN period  1
  SAVE  HEAD  LAST
  SAVE  BUDGET  LAST
  PRINT  BUDGET  LAST
  PRINT  HEAD  LAST
END period  1

