# File generated by Flopy version 3.3.5 on 05/04/2022 at 11:23:05.
BEGIN options
END options

BEGIN griddata
  iconvert
    OPEN/CLOSE  'gwf.sto_iconvert.txt'  FACTOR  1
  ss
    OPEN/CLOSE  'gwf.sto_ss.txt'  FACTOR  1.0
  sy
    OPEN/CLOSE  'gwf.sto_sy.txt'  FACTOR  1.0
END griddata

BEGIN period  1
  STEADY-STATE
END period  1

BEGIN period  2
  TRANSIENT
END period  2

