# File generated by Flopy version 3.3.5 on 05/04/2022 at 11:23:05.
BEGIN options
  SAVE_FLOWS
  SAVE_SPECIFIC_DISCHARGE
  SAVE_SATURATION
END options

BEGIN griddata
  icelltype
    OPEN/CLOSE  'gwf.npf_icelltype.txt'  FACTOR  1
  k
    OPEN/CLOSE  'gwf.npf_k.txt'  FACTOR  1.0
END griddata

