# File generated by Flopy version 3.3.5 on 05/04/2022 at 11:23:05.
BEGIN griddata
  strt
    OPEN/CLOSE  'gwf.ic_strt.txt'  FACTOR  1.0
END griddata

