# File generated by Flopy version 3.3.5 on 05/04/2022 at 11:23:05.
BEGIN options
  NEWTON
END options

BEGIN packages
  DIS6  gwf.dis  dis
  NPF6  gwf.npf  npf
  IC6  gwf.ic  ic
  STO6  gwf.sto  sto
  OC6  gwf.oc  oc
  WEL6  gwf.wel  wel_0
  GHB6  gwf.ghb  ghb_0
END packages

