# File generated by Flopy version 3.3.5 on 05/04/2022 at 11:23:05.
BEGIN options
  auxiliary  concentration
  SAVE_FLOWS
END options

BEGIN dimensions
  MAXBOUND  2
END dimensions

BEGIN period  1
    OPEN/CLOSE  'gwf.ghb_stress_period_data_1.txt'
END period  1

